real-data-new/processed_file/inventories/test_cases_v36/transformers_2w.csv
from_bus,to_bus,circuit_id,status,tap,tap_wind2,impedance,P_MW,Q_Mvar,loading_percent,RATEA,RATEB,RATEC,name,flow_source
100,50,1,1,1.0,1.0144927501678467,(-0+0.01400000136345625j);0j;0j,-100.00385284423828,-20.649982452392578,20.422725677490234,500.0,500.0,500.0,,psspy_brnflo_brnmsc
700,100,1,1,1.0,1.0,(-0+0.005000000353902578j);0j;0j,-100.00430297851562,-20.155988693237305,20.40306282043457,500.0,500.0,500.0,,psspy_brnflo_brnmsc
700,200,1,1,1.0,1.0,(-0+0.02500000037252903j);0j;0j,4.40619762898109e-14,-145.00917053222656,145.00917053222656,100.0,100.0,100.0,,psspy_brnflo_brnmsc
700,201,1,1,1.0,1.0,(-0+0.02500000037252903j);0j;0j,4.40619762898109e-14,-145.00917053222656,145.00917053222656,100.0,100.0,100.0,,psspy_brnflo_brnmsc
700,101,1,1,1.0,1.0,(-0+0.005000000353902578j);0j;0j,-100.00430297851562,-20.155988693237305,20.40306282043457,500.0,500.0,500.0,,psspy_brnflo_brnmsc
101,51,1,1,1.0,1.0144927501678467,(-0+0.01400000136345625j);0j;0j,-100.00385284423828,-20.649982452392578,20.422725677490234,500.0,500.0,500.0,,psspy_brnflo_brnmsc
